Circuit: * C:\Users\ydonchev\OneDrive - Qualcomm\Documents\yannidd\analog-electronics-nn\ltspice\activations\tanh\tanh.asc

Direct Newton iteration failed to find .op point.  (Use ".option noopiter" to skip.)
Starting Gmin stepping
Gmin = 10
Gmin = 1.07374
Gmin = 0.115292
Gmin = 0.0123794
Gmin = 0.00132923
Gmin = 0.000142725
Gmin = 1.5325e-005
Gmin = 1.6455e-006
Gmin = 1.76685e-007
Gmin = 1.89714e-008
Gmin = 2.03704e-009
Gmin = 2.18725e-010
Gmin = 2.34854e-011
Gmin = 2.52173e-012
Gmin = 2.70769e-013
Gmin = 0
Gmin stepping succeeded in finding the operating point.

.step r1=5000
.step r1=15811.4
.step r1=20000

Date: Wed Aug 07 21:51:49 2019
Total elapsed time: 0.576 seconds.

tnom = 27
temp = 27
method = modified trap
totiter = 2482
traniter = 2088
tranpoints = 1045
accept = 1045
rejected = 0
matrix size = 30
fillins = 20
solver = Normal
Matrix Compiler1: 2.63 KB object code size  0.7/0.5/[0.4]
Matrix Compiler2: off  [0.7]/0.9/0.9

